Examples/InverterModels/PVSystem2/InvControl2/volt-var/SnapShot_voltvar_greater_kvA_ppriority_Power_elem_kVA.txt

CIRCUIT ELEMENT POWER FLOW

(Power Flow into element from indicated Bus)

Power Delivery Elements

  Bus Phase     kW     +j   kvar         kVA         PF

ELEMENT = "Vsource.SOURCE"
A        1       333.3 +j    -47.2      336.7      -0.9901
A        2       333.3 +j    -47.2      336.7      -0.9901
A        3       333.3 +j    -47.2      336.7      -0.9901
   TERMINAL TOTAL  1000.0 +j   -141.6     1010.0      -0.9901
A        0         0.0 +j      0.0        0.0       1.0000
A        0         0.0 +j      0.0        0.0       1.0000
A        0         0.0 +j      0.0        0.0       1.0000
   TERMINAL TOTAL     0.0 +j      0.0        0.0       1.0000

= = = = = = = = = = = = = = = = = = =  = = = = = = = = = = =  = =

Power Conversion Elements

  Bus Phase     kW   +j  kvar         kVA         PF

ELEMENT = "PVSystem.PV"
A        1    -333.3 +j   47.2      336.7      -0.9901
A        2    -333.3 +j   47.2      336.7      -0.9901
A        3    -333.3 +j   47.2      336.7      -0.9901
A        0       0.0 +j    0.0        0.0       1.0000
  TERMINAL TOTAL  -1000.0 +j    141.6     1010.0      -0.9901


Total Circuit Losses =    0.0 +j    0.0
